power-flow-agent/results/ieee14/2026-09-21/gpt-5.6-sol/react_nogate/traces/05_case14-ambiguous-019-s0.transcript.txt
==============================================================================
TRANSCRIPT  react_nogate  |  openrouter:openai/gpt-5.6-sol  |  case14  |  case14-ambiguous-019-s0  run 0
==============================================================================
date: 2026-09-21   seed: 0   difficulty: ambiguous   tool variant: load_split

[system]   (hash 7da5e2a37ec4, from methods/react_nogate/method.json prompt_files)
You are a power system power-flow analysis assistant. You help the user complete power system analysis tasks from natural-language requests.

## What you can do
You complete tasks by calling tool functions:
1. Load an IEEE standard test system (14, 30, 57, 118, 300 buses)
2. Run AC power flow
3. Modify the load at a bus and re-solve
4. Disconnect or reconnect a line and re-solve
5. Query the network status
6. Run an N-1 contingency analysis (disconnect branches one at a time and rank the worst cases)
7. Generate remedial-action suggestions (what-if load shedding or voltage adjustment) to reduce violation risk

## Key rules
- Never fabricate any numerical result. Every voltage, power, loss, or loading value must come from a tool return value.
- If a tool reports an error or a non-converged power flow, say so explicitly and do not report numbers for that state.
- If the request is ambiguous, state the interpretation you are using.
- Bus and line identifiers in the request are MATPOWER 1-based ids; pass them to the tools as given, unless the request itself states a different indexing convention for that identifier (e.g. "(0-based)"), in which case convert it to the MATPOWER 1-based id before calling any tool.
- After a network modification, re-solve before reporting any value.
- Always reply in English.

## Reply format
After each analysis, reply in this structure:
1. One-sentence summary
2. Key numbers (total load, total generation, total losses, voltage range) taken from the tool outputs
3. Violations, if any
4. Suggested next step

[user]
Load the 14-bus test case (case14) and disconnect the line between bus 9 and bus 14 (1-based).

--- round 1 ---
[assistant]   (939 in / 60 out tokens, 2.4 s)
(no text)
tool_call  load_case(case_name="case14")
[tool load_case]   (gate: not applied)
{"case_name": "case14", "n_buses": 14, "n_generators": 5, "n_lines": 20, "n_loads": 11, "total_load_mw": 265.2259391570721, "total_gen_capacity_mw": 772.4000000000001}

--- round 2 ---
[assistant]   (1040 in / 24 out tokens, 1.5 s)
(no text)
tool_call  disconnect_line(from_bus=9, to_bus=14)
[tool disconnect_line]   (gate: pass)
{"case_name": "case14", "converged": true, "bus_voltages": [{"bus_id": 1, "vm_pu": 1.06, "va_deg": 0.0, "is_violation": true, "violation_type": "overvoltage"}, {"bus_id": 2, "vm_pu": 1.045, "va_deg": -5.1899946890013195, "is_violation": false, "violation_type": null}, {"bus_id": 3, "vm_pu": 1.0100000000000002, "va_deg": -13.162522716381941, "is_violation": false, "violation_type": null}, {"bus_id": 4, "vm_pu": 1.0187870136347925, "va_deg": -10.586938683178513, "is_violation": false, "violation_type": null}, {"bus_id": 5, "vm_pu": 1.0196936265931396, "va_deg": -9.063410455699287, "is_violation": false, "violation_type": null}, {"bus_id": 6, "vm_pu": 1.0700000000000003, "va_deg": -15.007234755744504, "is_violation": true, "violation_type": "overvoltage"}, {"bus_id": 7, "vm_pu": 1.0650723910793718, "va_deg": -13.28343512127081, "is_violation": true, "violation_type": "overvoltage"}, {"bus_id": 8, "vm_pu": 1.0899999999999999, "va_deg": -13.283435121270811, "is_violation": true, "violation_type": "overvoltage"}, {"bus_id": 9, "vm_pu": 1.0627169631091662, "va_deg": -14.6735338752704, "is_violation": true, "violation_type": "overvoltage"}, {"bus_id": 10, "vm_pu": 1.0564115115600274, "va_deg": -15.032135461322886, "is_violation": true, "violation_type": "overvoltage"}, {"bus_id": 11, "vm_pu": 1.0599001794414882, "va_deg": -15.145781528913163, "is_violation": true, "violation_type": "overvoltage"}, {"bus_id": 12, "vm_pu": 1.051870531509921, "va_deg": -16.05950867890945, "is_violation": true, "violation_type": "overvoltage"}, {"bus_id": 13, "vm_pu": 1.0430047586760465, "va_deg": -16.25072784475032, "is_violation": false, "violation_type": null}, {"bus_id": 14, "vm_pu": 1.0026820830991747, "va_deg": -18.446504125763237, "is_violation": false, "violation_type": null}], "line_flows": [{"line_id": 0, "from_bus": 1, "to_bus": 2, "p_from_mw": 163.15665486355056, "q_from_mvar": -21.858348200404308, "loading_percent": 1.568652005469207, "is_violation": false}, {"line_id": 1, "from_bus": 1, "to_bus": 5, "p_from_mw": 77.87561013709671, "q_from_mvar": 3.577280306931739, "loading_percent": 0.7430348773747811, "is_violation": false}, {"line_id": 2, "from_bus": 2, "to_bus": 3, "p_from_mw": 75.31045642354393, "q_from_mvar": 3.3607878816059618, "loading_percent": 0.7290105470586288, "is_violation": false}, {"line_id": 3, "from_bus": 2, "to_bus": 4, "p_from_mw": 56.641260166658, "q_from_mvar": -2.311371906162993, "loading_percent": 0.5479522581933403, "is_violation": false}, {"line_id": 4, "from_bus": 2, "to_bus": 5, "p_from_mw": 42.29992247275614, "q_from_mvar": 0.8652406906604777, "loading_percent": 0.41007997925439926, "is_violation": false}, {"line_id": 5, "from_bus": 3, "to_bus": 4, "p_from_mw": -24.993969375709923, "q_from_mvar": 4.558523019455075, "loading_percent": 0.25647610263558146, "is_violation": false}, {"line_id": 6, "from_bus": 4, "to_bus": 5, "p_from_mw": -59.98144053655754, "q_from_mvar": 17.694418386632833, "loading_percent": 0.6200373528854092, "is_violation": false}, {"line_id": 7, "from_bus": 6, "to_bus": 11, "p_from_mw": 3.2361465102628806, "q_from_mvar": 3.8896086839998345, "loading_percent": 0.04776562111387735, "is_violation": false}, {"line_id": 8, "from_bus": 6, "to_bus": 12, "p_from_mw": 9.553643220338284, "q_from_mvar": 3.0671033759089488, "loading_percent": 0.09472202041179456, "is_violation": false}, {"line_id": 9, "from_bus": 6, "to_bus": 13, "p_from_mw": 23.812951280772754, "q_from_mvar": 10.282846884596614, "loading_percent": 0.24486231428890634, "is_violation": false}, {"line_id": 10, "from_bus": 9, "to_bus": 10, "p_from_mw": 9.906526269346344, "q_from_mvar": 4.226784568352088, "loading_percent": 0.10237301444053924, "is_violation": false}, {"line_id": 11, "from_bus": 9, "to_bus": 14, "p_from_mw": 0.0, "q_from_mvar": 0.0, "loading_percent": 0.0, "is_violation": false}, {"line_id": 12, "from_bus": 10, "to_bus": 11, "p_from_mw": 0.2850711395320963, "q_from_mvar": -2.0394477018139305, "loading_percent": 0.019690011696298672, "is_violation": false}, {"line_id": 13, "from_bus": 12, "to_bus": 13, "p_from_mw": 3.1472525915208163, "q_from_mvar": 1.1901364223804909, "loading_percent": 0.03231148161748548, "is_violation": false}, {"line_id": 14, "from_bus": 13, "to_bus": 14, "p_from_mw": 14.144966453416, "q_from_mvar": 5.357921481128378, "loading_percent": 0.14648547565366693, "is_violation": false}, {"line_id": 100000, "from_bus": 4, "to_bus": 7, "p_from_mw": 24.960023458477497, "q_from_mvar": -11.052957405727547, "loading_percent": 0.2706507732001223, "is_violation": false}, {"line_id": 100001, "from_bus": 4, "to_bus": 9, "p_from_mw": 14.316358666738754, "q_from_mvar": -1.6323627087171448, "loading_percent": 0.1428627011587974, "is_violation": false}, {"line_id": 100002, "from_bus": 5, "to_bus": 6, "p_from_mw": 48.10238897453816, "q_from_mvar": 12.956275082784446, "loading_percent": 0.4934806961398663, "is_violation": false}, {"line_id": 100003, "from_bus": 7, "to_bus": 8, "p_from_mw": 2.7404920480746344e-15, "q_from_mvar": -15.072215746230434, "loading_percent": 0.1429429631003659, "is_violation": false}, {"line_id": 100004, "from_bus": 7, "to_bus": 9, "p_from_mw": 24.960023458128617, "q_from_mvar": 2.5832326381995423, "loading_percent": 0.23798204988535226, "is_violation": false}], "total_generation_mw": 279.78087443300143, "total_load_mw": 265.2259391570721, "total_loss_mw": 14.554935289562298, "voltage_violations": [{"bus_id": 1, "vm_pu": 1.06, "va_deg": 0.0, "is_violation": true, "violation_type": "overvoltage"}, {"bus_id": 6, "vm_pu": 1.0700000000000003, "va_deg": -15.007234755744504, "is_violation": true, "violation_type": "overvoltage"}, {"bus_id": 7, "vm_pu": 1.0650723910793718, "va_deg": -13.28343512127081, "is_violation": true, "violation_type": "overvoltage"}, {"bus_id": 8, "vm_pu": 1.0899999999999999, "va_deg": -13.283435121270811, "is_violation": true, "violation_type": "overvoltage"}, {"bus_id": 9, "vm_pu": 1.0627169631091662, "va_deg": -14.6735338752704, "is_violation": true, "violation_type": "overvoltage"}, {"bus_id": 10, "vm_pu": 1.0564115115600274, "va_deg": -15.032135461322886, "is_violation": true, "violation_type": "overvoltage"}, {"bus_id": 11, "vm_pu": 1.0599001794414882, "va_deg": -15.145781528913163, "is_violation": true, "violation_type": "overvoltage"}, {"bus_id": 12, "vm_pu": 1.051870531509921, "va_deg": -16.05950867890945, "is_violation": true, "violation_type": "overvoltage"}], "thermal_violations": [], "summary_text": "", "solver_backend": "pandapower", "llm_prompt": null, "llm_response": null}

--- round 3 ---
[assistant]   (3735 in / 258 out tokens, 4.2 s)
1. **Summary:** IEEE case14 was loaded, and the line between buses 9 and 14 was disconnected; the AC power flow converged successfully.

2. **Key numbers:**
   - Total load: **265.226 MW**
   - Total generation: **279.781 MW**
   - Total losses: **14.555 MW**
   - Voltage range: **1.0027–1.0900 p.u.**

3. **Violations:**
   - Overvoltage at buses **1, 6, 7, 8, 9, 10, 11, and 12**
   - Highest voltage: **1.0900 p.u. at bus 8**
   - No thermal violations

4. **Suggested next step:** Evaluate voltage-control remedial actions or run an N-1 contingency analysis with the line outage in place.

[final answer]
1. **Summary:** IEEE case14 was loaded, and the line between buses 9 and 14 was disconnected; the AC power flow converged successfully.

2. **Key numbers:**
   - Total load: **265.226 MW**
   - Total generation: **279.781 MW**
   - Total losses: **14.555 MW**
   - Voltage range: **1.0027–1.0900 p.u.**

3. **Violations:**
   - Overvoltage at buses **1, 6, 7, 8, 9, 10, 11, and 12**
   - Highest voltage: **1.0900 p.u. at bus 8**
   - No thermal violations

4. **Suggested next step:** Evaluate voltage-control remedial actions or run an N-1 contingency analysis with the line outage in place.
